%chk=c1cnc2cqn1r[N]C[N]2.chk
%NProcShared=20
# opt freq b3lyp/6-31g(2df,p)

Title Card Required 

0  1
C           1.80805         1.01428         0.00349
C           2.08570        -0.35537         0.00024
N           1.13842        -1.31369        -0.00013
C          -0.10803        -0.79727         0.00149
C          -0.38733         0.56640         0.00309
N           0.55919         1.52875         0.00480
N          -1.70265         0.83194        -0.00131
C          -2.30588        -0.54566        -0.01394
N          -1.20534        -1.56449        -0.00289
H           2.60910         1.73863         0.00522
H           3.10288        -0.71798        -0.00242
H          -2.93790        -0.68182        -0.90258
H          -2.96808        -0.68894         0.85113

