%chk=Cc1ccc2cqc1rCCCC2.chk
%NProcShared=20
# opt freq b3lyp/6-31g(2df,p)

Title Card Required 

0  1
C           0.97293        -0.07071        -0.06297
C           2.47165        -0.06006        -0.06647
C           3.18152         1.14145        -0.11902
C           4.57635         1.13804        -0.11861
C           5.28484        -0.06902        -0.06061
C           4.57864        -1.28569        -0.03929
C           3.17638        -1.26934        -0.02226
C           5.29550        -2.61350         0.02072
C           6.76196        -2.50315        -0.39088
C           7.41664        -1.35298         0.36436
C           6.79375        -0.03139        -0.07910
H           0.56614         0.94476        -0.10566
H           0.60154        -0.54497         0.85087
H           0.59978        -0.61968        -0.93333
H           2.65569         2.09235        -0.15951
H           5.11055         2.08382        -0.16302
H           2.62894        -2.20862         0.02261
H           4.79655        -3.33992        -0.63147
H           5.23315        -2.99136         1.04912
H           6.83386        -2.32345        -1.47175
H           7.28056        -3.44491        -0.18395
H           8.49607        -1.33668         0.18231
H           7.27128        -1.49034         1.44404
H           7.11852         0.19943        -1.10158
H           7.15637         0.77036         0.57473

