%chk=Cc1ccc2cqc1rCCdC2.chk
%NProcShared=20
# opt freq b3lyp/6-31g(2df,p)

Title Card Required 

0  1
C           1.06922        -0.03400         0.04026
C           2.56901        -0.01814         0.04056
C           3.31485        -1.21597         0.04025
C           4.71637        -1.19570         0.04054
C           5.35320         0.03228         0.04136
C           4.61418         1.22050         0.04259
C           3.23172         1.21539         0.04174
C           5.53889         2.39523         0.04602
C           6.87824         1.70191         0.03842
C           6.76973         0.36142         0.03923
H           0.67431        -1.05418         0.03960
H           0.69183         0.47763        -0.85127
H           0.69171         0.47647         0.93241
H           2.80147        -2.17555         0.03961
H           5.27961        -2.12284         0.03991
H           2.67761         2.14856         0.04204
H           5.41106         2.99468         0.95174
H           5.40427         3.00766        -0.84984
H           7.81281         2.24335         0.03415
H           7.57205        -0.35728         0.03714

