%chk=CC1qOrCCCqCrqOrCC1.chk
%NProcShared=20
# opt freq b3lyp/6-31g(2df,p)

Title Card Required 

0  1
C           1.01907        -0.02532         0.14923
C           2.55138        -0.04657         0.07320
O           3.05236         0.30890         1.36317
C           3.07771        -1.44359        -0.28515
C           2.68364        -1.84692        -1.70341
C           3.15851        -0.81565        -2.74010
C           2.66191        -1.21832        -4.12617
O           4.58855        -0.80715        -2.76572
C           2.69355         0.60636        -2.38182
C           3.06867         0.98200        -0.94368
H           0.65726        -0.75211         0.88419
H           0.54118        -0.25605        -0.80708
H           0.66199         0.95844         0.47135
H           2.75208        -0.36492         1.99549
H           2.71019        -2.18790         0.43174
H           4.17183        -1.46304        -0.18437
H           1.59478        -1.96370        -1.76375
H           3.11490        -2.83170        -1.91866
H           3.02487        -2.21866        -4.38830
H           3.03897        -0.53511        -4.89390
H           1.56767        -1.22776        -4.16950
H           4.89858        -1.71670        -2.89178
H           1.60821         0.69286        -2.51068
H           3.14826         1.33865        -3.06069
H           2.68544         1.98155        -0.70238
H           4.16103         1.06722        -0.85758

