%chk=CC1qCr[C]2[CH]CCC1C2.chk
%NProcShared=20
# opt freq b3lyp/6-31g(2df,p)

Title Card Required 

0  1
C           0.87805        -0.09934        -0.02313
C           2.41415        -0.05361        -0.05154
C           2.84413        -0.07657        -1.53255
C           3.15198        -1.04258         0.84072
C           2.55780        -1.30176         2.15763
C           2.45597        -0.07560         3.03990
C           2.39910         1.22945         2.20604
C           3.11963         1.02187         0.84936
C           4.26075        -0.02361         0.95985
H           0.49524        -0.89334        -0.67158
H           0.47292         0.85106        -0.38835
H           0.45215        -0.27214         0.97046
H           2.39313        -0.92609        -2.05616
H           3.92710        -0.14453        -1.68346
H           2.50489         0.83683        -2.03386
H           2.62074        -2.29453         2.58299
H           3.35267        -0.04437         3.67327
H           1.59939        -0.14339         3.71805
H           2.85398         2.05178         2.76597
H           1.35522         1.51866         2.03235
H           3.38539         1.96414         0.35517
H           4.82947        -0.03332         1.89895
H           4.99405        -0.06872         0.14940

