%chk=CCC1dCCqCrqCrCCqCrdC1.chk
%NProcShared=20
# opt freq b3lyp/6-31g(2df,p)

Title Card Required 

0  1
C           1.06521        -0.19776        -0.05965
C           2.59596        -0.08838        -0.06845
C           3.09952         1.33549        -0.11691
C           2.24423         2.37211        -0.04248
C           2.63700         3.81066        -0.04002
C           2.23952         4.31646         1.35398
C           1.87183         4.45149        -1.20478
C           4.13909         4.07374        -0.24486
C           5.01683         2.85486        -0.29720
C           6.47097         3.17949        -0.44432
C           4.52348         1.60121        -0.23621
H           0.73143        -1.23548        -0.04188
H           0.63861         0.27830        -0.95262
H           0.64135         0.29634         0.82488
H           2.97631        -0.63850        -0.93677
H           2.98502        -0.57560         0.83388
H           1.17676         2.21512         0.05585
H           1.18615         4.12541         1.58673
H           2.43449         5.38542         1.46533
H           2.83252         3.79202         2.12008
H           0.79538         4.25314        -1.16392
H           2.23174         4.03296        -2.15795
H           2.02915         5.53193        -1.24037
H           4.50829         4.72643         0.55754
H           4.29818         4.63587        -1.17460
H           6.61960         4.26779        -0.46140
H           6.85982         2.79086        -1.38833
H           7.04521         2.79205         0.40001
H           5.19387         0.74662        -0.28962

