%chk=CCCCCSCtN.chk
%NProcShared=20
# opt freq b3lyp/6-31g(2df,p)

Title Card Required 

0  1
C           0.93639         0.05728         0.05081
C           2.45627         0.05211         0.06480
C           2.98765        -0.44507         1.41047
C           4.51771        -0.45579         1.43948
C           5.05717        -0.95406         2.78810
S           6.87622        -0.93235         2.72933
C           7.28056        -1.50054         4.26720
N           7.62974        -1.88498         5.30772
H           0.56327         0.41376        -0.91403
H           0.54276         0.71398         0.83324
H           0.54276        -0.95038         0.21831
H           2.82299         1.06627        -0.13316
H           2.82299        -0.58971        -0.74499
H           2.60819        -1.45636         1.59976
H           2.60819         0.20021         2.21182
H           4.88142         0.56059         1.23909
H           4.88142        -1.09772         0.62640
H           4.69692        -1.97124         2.97802
H           4.69692        -0.30472         3.59375

