%chk=CCCC1CC1CCC.chk
%NProcShared=20
# opt freq b3lyp/6-31g(2df,p)

Title Card Required 

0  1
C           1.00811         0.03892        -0.03420
C           2.52161         0.06280        -0.03958
C           3.12603        -1.25469         0.44310
C           4.63044        -1.26491         0.44488
C           5.39334        -1.14517        -0.84983
C           5.44803        -0.02509         0.15376
C           6.68461         0.26963         0.94315
C           6.43784         1.44211         1.89656
C           7.68785         1.80334         2.67676
H           0.62396         0.99973        -0.39079
H           0.62647        -0.12961         0.97672
H           0.62846        -0.74864        -0.69109
H           2.85949         0.88198         0.60635
H           2.86590         0.28592        -1.05608
H           2.76737        -2.08409        -0.17883
H           2.77703        -1.45627         1.46330
H           5.01216        -1.99412         1.15594
H           4.82903        -0.97577        -1.76259
H           6.27315        -1.76133        -0.99351
H           4.96683         0.89542        -0.16000
H           7.49122         0.52808         0.24809
H           7.01124        -0.61127         1.50914
H           5.62522         1.19692         2.59129
H           6.10768         2.32087         1.32779
H           8.02687         0.95863         3.28370
H           7.48715         2.64693         3.34454
H           8.49826         2.09160         1.99980

