%chk=CCOCqdOrC1dCq[NH]rNCqOCrdN[CH]1.chk
%NProcShared=20
# opt freq b3lyp/6-31g(2df,p)

Title Card Required 

0  1
C           1.10722         0.04406         0.04259
C           2.63142         0.03042         0.03422
O           3.10194        -0.44592        -1.23352
C           4.45809        -0.47313        -1.40681
O           5.27888        -0.23566        -0.51690
C           4.82726        -0.92906        -2.78078
C           4.29222        -0.36718        -3.89335
N           3.42126         0.63020        -4.09918
N           4.68960        -0.89293        -5.10230
C           5.40272        -2.05849        -5.18936
O           5.49103        -2.68980        -6.39670
C           4.81816        -2.16936        -7.54919
N           6.00946        -2.61892        -4.17772
C           5.90459        -1.90543        -2.98837
H           0.72347         0.37954         1.01243
H           0.70387        -0.95345        -0.16133
H           0.71377         0.71176        -0.73148
H           2.98574        -0.63309         0.83020
H           2.99934         1.04703         0.21345
H           3.13868         0.94864        -3.16189
H           4.30575        -0.37787        -5.87359
H           4.97442        -2.86942        -8.37759
H           5.25295        -1.20797        -7.83495
H           3.74071        -2.08629        -7.37807
H           6.84248        -1.70794        -2.47721

