%chk=CCOCqdOrCn1ccnc1[N+]qdOr[O-].chk
%NProcShared=20
# opt freq b3lyp/6-31g(2df,p)

Title Card Required 

0  1
C           1.11971        -0.03004         0.01922
C           2.63578        -0.01328         0.03526
O           3.10166         0.67736         1.20935
C           4.46006         0.78233         1.25585
O           5.21150         0.38215         0.36962
C           4.93828         1.44071         2.53454
N           6.39736         1.42331         2.62404
C           7.20640         2.53809         2.64049
C           8.49631         2.05492         2.65207
N           8.50506         0.68588         2.67065
C           7.23352         0.33079         2.65155
N           6.79933        -1.04721         2.67110
O           7.66880        -1.92357         2.60294
O           5.58348        -1.26194         2.79666
H           0.74772        -0.54214        -0.87422
H           0.72210         0.98944         0.02914
H           0.72714        -0.54090         0.90379
H           2.99912         0.49853        -0.86378
H           3.01092        -1.04401         0.04300
H           4.56004         0.93212         3.42734
H           4.61050         2.48546         2.55428
H           6.82489         3.55090         2.62194
H           9.42121         2.62030         2.64788

