%chk=CCOSq[O]rq[O]rCCCqCrqCrC.chk
%NProcShared=20
# opt freq b3lyp/6-31g(2df,p)

Title Card Required 

0  1
C           1.09619        -0.12616         0.01417
C           2.60900        -0.05995        -0.02444
O           3.24312        -1.16500         0.61989
S           4.88049        -1.08923         0.57347
O           5.29301        -1.23258        -0.80474
O           5.29350         0.04289         1.38160
C           5.31147        -2.58834         1.44970
C           6.84471        -2.70665         1.51857
C           7.37725        -3.96054         2.24958
C           6.90232        -3.96911         3.70994
C           6.90232        -5.23559         1.53756
C           8.91896        -3.93893         2.23699
H           0.68164         0.75082        -0.49710
H           0.72188        -0.13365         1.04170
H           0.72187        -1.02403        -0.48554
H           2.93157         0.86447         0.46596
H           2.93157        -0.03126        -1.07047
H           4.86893        -3.42365         0.90137
H           4.86895        -2.52284         2.44659
H           7.24900        -1.80870         2.00670
H           7.24900        -2.68902         0.49668
H           5.81138        -4.01116         3.78127
H           7.23878        -3.06790         4.23564
H           7.29433        -4.83819         4.24836
H           5.81138        -5.31838         1.53901
H           7.29433        -6.13230         2.02858
H           7.23878        -5.24905         0.49432
H           9.31076        -3.04904         2.74268
H           9.31076        -3.94057         1.21345
H           9.32858        -4.81753         2.74920

