%chk=CCqCrCqOrCCO.chk
%NProcShared=20
# opt freq b3lyp/6-31g(2df,p)

Title Card Required 

0  1
C           0.89073        -0.07134         0.01813
C           2.42310        -0.05434        -0.00764
C           2.90776        -0.29252        -1.43992
C           2.96566         1.26893         0.57465
O           2.47721         1.44223         1.90755
C           4.49417         1.31953         0.60639
C           5.01082         2.63786         1.16277
O           6.43430         2.62939         1.13378
H           0.50749        -1.01844        -0.37612
H           0.47949         0.74061        -0.59139
H           0.50616         0.04056         1.03684
H           2.76740        -0.88514         0.62249
H           2.59902         0.52672        -2.09822
H           2.49913        -1.22552        -1.84049
H           3.99674        -0.37840        -1.49201
H           2.58517         2.11033        -0.01608
H           2.76037         0.67902         2.43682
H           4.91691         1.18911        -0.39510
H           4.88624         0.49568         1.21647
H           4.68609         2.80326         2.19413
H           4.66468         3.47529         0.54965
H           6.73139         1.89576         1.69580

