%chk=CCqCrqOrCOC1CCNCC1.chk
%NProcShared=20
# opt freq b3lyp/6-31g(2df,p)

Title Card Required 

0  1
C           0.98685         0.01099         0.06791
C           2.51404         0.00434         0.07672
C           3.06188        -0.29893        -1.32276
O           2.95960         1.29694         0.49451
C           2.99246        -1.04769         1.09210
O           4.41210        -1.14134         1.06182
C           4.97420        -2.09398         1.96646
C           6.48723        -2.03668         1.74000
C           6.83488        -2.56680         0.34562
N           6.34601        -3.93846         0.15184
C           4.88960        -3.98213         0.30761
C           4.47809        -3.52146         1.70488
H           0.60101         0.77528        -0.61378
H           0.59948         0.25041         1.06489
H           0.58625        -0.96267        -0.23315
H           2.72247         0.44836        -2.04801
H           2.73836        -1.28673        -1.66949
H           4.15734        -0.27152        -1.34210
H           2.72347         1.93668        -0.20254
H           2.55667        -2.00850         0.80306
H           2.67212        -0.79150         2.10748
H           4.74140        -1.78748         2.99316
H           7.00600        -2.62662         2.50518
H           6.84127        -1.00177         1.82125
H           7.92109        -2.55469         0.20918
H           6.41968        -1.91345        -0.43253
H           6.77173        -4.53969         0.85712
H           4.54148        -5.00716         0.14335
H           4.41163        -3.36729        -0.46588
H           4.89421        -4.20016         2.45926
H           3.39036        -3.59303         1.80303

