%chk=CCqCrqCrCCCCOCOCqCrqCrC.chk
%NProcShared=20
# opt freq b3lyp/6-31g(2df,p)

Title Card Required 

0  1
C           0.88652        -0.03296        -0.06619
C           2.42336        -0.04900        -0.10019
C           2.89936        -1.50545        -0.24061
C           2.89936         0.76909        -1.31334
C           2.94376         0.57270         1.21801
C           4.46461         0.61209         1.30153
C           4.93775         1.22734         2.60608
C           6.45077         1.22244         2.59567
O           6.92620         1.79414         3.80788
C           8.34487         1.77195         3.76083
O           8.91807         2.32574         4.93505
C          10.35401         2.32533         4.93418
C          10.90784         0.89418         4.86890
C          10.90784         3.18531         3.78835
C          10.78176         2.95348         6.26606
H           0.46905        -0.46502        -0.98231
H           0.50397         0.98943         0.02661
H           0.50397        -0.61168         0.78173
H           2.48717        -1.97108        -1.14159
H           2.58763        -2.10486         0.62230
H           3.98927        -1.57685        -0.31948
H           2.48717         0.37006        -2.24573
H           3.98927         0.75365        -1.41860
H           2.58763         1.81620        -1.22696
H           2.55623         0.00453         2.07333
H           2.55623         1.59408         1.32366
H           4.87767         1.19554         0.47324
H           4.87767        -0.39816         1.22487
H           4.56935         0.66015         3.46599
H           4.56935         2.25165         2.71541
H           6.82035         1.80283         1.74135
H           6.82035         0.19404         2.50009
H           8.65215         2.35225         2.88894
H           8.65215         0.73006         3.65400
H          10.66394         0.40057         3.92212
H          10.47446         0.27712         5.66503
H          11.99673         0.88044         4.96323
H          10.66394         2.76873         2.80525
H          11.99672         3.26683         3.83776
H          10.47446         4.19211         3.81863
H          10.38766         2.38206         7.11387
H          10.38766         3.97113         6.36443
H          11.87269         2.99457         6.35318

