%chk=CCqCrqCrc1ccqNdOrcqCqCrqCrCrcc1O.chk
%NProcShared=20
# opt freq b3lyp/6-31g(2df,p)

Title Card Required 

0  1
C           1.03500        -0.06048         0.03946
C           2.57773        -0.04089         0.03215
C           3.06639        -1.47242         0.35390
C           3.11727         0.30017        -1.37226
C           3.02959         0.98519         1.07336
C           3.63563         0.58026         2.27552
C           3.95747         1.44652         3.33638
N           4.52477         0.74217         4.39357
O           4.80712         1.33535         5.42714
C           3.66423         2.82678         3.18000
C           3.90927         3.90547         4.25031
C           3.03461         3.62000         5.49301
C           5.42376         4.02300         4.52590
C           3.48362         5.33700         3.80454
C           3.09056         3.23832         1.94397
C           2.78122         2.34491         0.92604
O           2.18355         2.81292        -0.20885
H           0.64350        -0.78482        -0.68008
H           0.60034         0.91284        -0.21208
H           0.65289        -0.32737         1.03356
H           2.72988        -2.18794        -0.40186
H           2.68133        -1.82738         1.31773
H           4.16263        -1.51576         0.38910
H           2.80940        -0.45592        -2.10161
H           4.21294         0.34667        -1.36872
H           2.75787         1.25534        -1.76183
H           3.86158        -0.47220         2.43939
H           3.15245         2.63239         5.93408
H           1.96965         3.68144         5.23052
H           3.22819         4.34517         6.28895
H           5.91981         3.09824         4.81357
H           5.62806         4.75022         5.31672
H           5.94817         4.35026         3.61803
H           2.41094         5.38883         3.57856
H           4.03701         5.66568         2.91609
H           3.67977         6.07108         4.59329
H           2.84017         4.27687         1.75506
H           2.17827         3.78244        -0.22555

