%chk=CCqCrC1qCrCCCC1C.chk
%NProcShared=20
# opt freq b3lyp/6-31g(2df,p)

Title Card Required 

0  1
C           0.91262         0.17850        -0.00758
C           2.44390         0.03199        -0.00334
C           2.90527        -0.10339         1.45422
C           2.95564        -1.11251        -0.95834
C           2.90116        -0.58275        -2.41523
C           4.41522        -1.54451        -0.65991
C           4.52688        -2.96171        -1.19857
C           3.18383        -3.59459        -0.87835
C           2.16170        -2.44951        -0.78397
C           1.00073        -2.66565        -1.75709
H           0.59844         1.02522         0.61132
H           0.41986        -0.70916         0.40318
H           0.52570         0.35279        -1.01498
H           2.85585         0.98392        -0.36573
H           2.62488        -1.07177         1.87888
H           2.46416         0.68096         2.07836
H           3.98967         0.01750         1.54006
H           3.52965         0.30845        -2.53097
H           1.88774        -0.29878        -2.71354
H           3.25983        -1.32525        -3.13625
H           4.63369        -1.59125         0.40755
H           5.15795        -0.87926        -1.11760
H           5.35005        -3.50919        -0.72376
H           4.70525        -2.96125        -2.27605
H           3.23672        -4.10466         0.09062
H           2.91666        -4.35253        -1.62340
H           1.74438        -2.49537         0.23028
H           1.34964        -2.74955        -2.79165
H           0.27467        -1.85033        -1.71300
H           0.46570        -3.58948        -1.51570

