%chk=CCqCrCCqdOrOCqCrC.chk
%NProcShared=20
# opt freq b3lyp/6-31g(2df,p)

Title Card Required 

0  1
C           1.06352        -0.05176         0.07722
C           2.59210        -0.02699         0.04938
C           3.04985         0.58698        -1.27973
C           3.17126         0.74006         1.25994
C           4.68465         0.63916         1.28706
O           5.33054        -0.10856         0.55753
O           5.24809         1.46550         2.21561
C           6.69595         1.43470         2.23346
C           7.26388         2.08452         0.97031
C           7.20023         2.20642         3.45040
H           0.67565        -0.62968        -0.77032
H           0.65122         0.96021         0.00667
H           0.68802        -0.51447         0.99473
H           2.94458        -1.06655         0.09285
H           2.69892         1.61952        -1.37204
H           2.66157         0.01078        -2.12560
H           4.13798         0.60023        -1.38225
H           2.79070         0.30302         2.19086
H           2.86352         1.79131         1.21529
H           7.03777         0.39474         2.32313
H           6.89733         3.11143         0.87170
H           6.95843         1.55921         0.06147
H           8.35754         2.09432         0.99061
H           6.85080         3.24418         3.42732
H           8.29628         2.21376         3.48006
H           6.83390         1.76283         4.38103

