%chk=CCqdOrOCCOCCOCCCqCrC.chk
%NProcShared=20
# opt freq b3lyp/6-31g(2df,p)

Title Card Required 

0  1
C           1.00004        -0.05154         0.01923
C           2.50019        -0.05027        -0.05680
O           3.12517        -0.03281        -1.11101
O           3.06151        -0.07078         1.18448
C           4.50228        -0.07070         1.18133
C           5.01966        -0.09445         2.61759
O           6.44801        -0.09466         2.63146
C           6.94033        -0.12046         3.97246
C           8.45718        -0.12786         3.96238
O           8.93475        -0.17663         5.30853
C          10.35630        -0.15544         5.30558
C          10.88295        -0.16243         6.73266
C          12.41845        -0.14200         6.75847
C          12.97421         1.10430         6.06513
C          12.92156        -0.19300         8.19825
H           0.59286        -0.03471        -0.99769
H           0.64043         0.83907         0.54067
H           0.64043        -0.95892         0.51091
H           4.87704         0.82639         0.67327
H           4.87704        -0.95054         0.64391
H           4.64960        -0.98937         3.13098
H           4.64971         0.78287         3.16056
H           6.57621        -1.01434         4.49185
H           6.58304         0.75860         4.52191
H           8.83169         0.77308         3.45959
H           8.82819        -0.99806         3.40799
H          10.67419         0.75152         4.78437
H          10.73446        -1.03130         4.76609
H          10.50437        -1.05146         7.25434
H          10.47636         0.69733         7.28075
H          12.79098        -1.03036         6.23132
H          12.60383         2.01369         6.55044
H          12.69003         1.14553         5.00970
H          14.06707         1.11441         6.09334
H          12.57516         0.67820         8.76436
H          14.01616        -0.20121         8.22342
H          12.56492        -1.09438         8.70667

