%chk=CCqOrdNc1nncq-c2ccccc2Crs1.chk
%NProcShared=20
# opt freq b3lyp/6-31g(2df,p)

Title Card Required 

0  1
C           1.05195        -0.06069         0.08754
C           2.55298        -0.05821         0.06002
O           3.13207         0.73265         0.98622
N           3.19960        -0.75792        -0.80371
C           4.56239        -0.69351        -0.84050
N           5.28719        -0.55272        -1.93619
N           6.65172        -0.59695        -1.71005
C           6.93645        -0.83399        -0.44797
C           8.29096        -0.96919         0.10552
C           9.19738         0.09396        -0.06466
C          10.50718         0.00824         0.41581
C          10.93283        -1.14314         1.06943
C          10.05325        -2.21101         1.23839
C           8.73301        -2.14256         0.75920
C           7.84773        -3.34882         0.92350
S           5.55343        -0.94354         0.55961
H           0.65976         0.55170         0.90338
H           0.68657        -1.08357         0.21168
H           0.67767         0.34256        -0.85804
H           2.50582         1.14038         1.60259
H           8.88562         1.00024        -0.58228
H          11.19723         0.83602         0.27151
H          11.95317        -1.21753         1.43794
H          10.41014        -3.11112         1.73534
H           8.37110        -4.17055         1.42113
H           7.51544        -3.70826        -0.05569
H           6.98306        -3.11397         1.54865

