%chk=CCqOrCqCrOCqdOrCqCrqCrC.chk
%NProcShared=20
# opt freq b3lyp/6-31g(2df,p)

Title Card Required 

0  1
C           1.09866         0.00528        -0.02197
C           2.62777        -0.05071         0.01977
O           3.10230         1.25003         0.38381
C           3.15456        -1.13658         0.99931
C           2.61466        -2.50849         0.58231
O           4.61123        -1.15409         0.97933
C           5.20770        -1.97037         1.89818
O           4.58607        -2.64959         2.71302
C           6.73733        -1.94805         1.82938
C           7.24263        -2.30063         0.42674
C           7.25284        -0.56658         2.24076
C           7.28233        -2.99497         2.82129
H           0.75201         0.79170        -0.69934
H           0.69425         0.23577         0.97030
H           0.65582        -0.93338        -0.36540
H           3.01401        -0.24601        -0.98717
H           2.77722         1.45363         1.27678
H           2.83372        -0.87053         2.01568
H           2.96443        -2.75794        -0.42467
H           1.52396        -2.54536         0.60462
H           2.95251        -3.31140         1.23866
H           6.90466        -1.57459        -0.31978
H           6.88908        -3.28893         0.11303
H           8.33949        -2.31495         0.40064
H           6.91133         0.21067         1.54908
H           8.34898        -0.54532         2.25262
H           6.90074        -0.29646         3.24243
H           6.93461        -4.00253         2.56256
H           6.94214        -2.78670         3.84296
H           8.37725        -3.00975         2.83136

