%chk=CdC1CqdOrOC2CqOCdOrCCCC12.chk
%NProcShared=20
# opt freq b3lyp/6-31g(2df,p)

Title Card Required 

0  1
C           1.06176        -0.14307         0.04332
C           2.39735        -0.06584         0.00049
C           3.35522        -1.20119        -0.14775
O           3.07119        -2.39106        -0.08837
O           4.59242        -0.66056        -0.46433
C           4.59098         0.67483         0.06517
C           5.71468         1.68919        -0.31182
O           6.89522         1.23378         0.42029
C           8.01890         1.96591         0.55094
O           8.95731         1.63063         1.25943
C           5.24021         3.06629         0.22085
C           3.88192         3.46842        -0.36143
C           2.78848         2.54855         0.18360
C           3.18539         1.15239        -0.26608
H           0.53636        -1.09202        -0.00391
H           0.46083         0.76051        -0.00788
H           4.76635         0.50542         1.13306
H           5.97453         1.72538        -1.38068
H           8.01526         2.89595        -0.03195
H           5.97400         3.85193         0.02260
H           5.15334         3.00181         1.31423
H           3.91711         3.36467        -1.45538
H           3.64297         4.51436        -0.15166
H           1.83223         2.81573        -0.28468
H           2.64535         2.67698         1.26557
H           3.09703         1.21635        -1.35611

