%chk=CN1C2Cc3ccccc3C1Cc1ccccc12.chk
%NProcShared=20
# opt freq b3lyp/6-31g(2df,p)

Title Card Required 

0  1
C           1.08734         0.13436         1.00462
N           2.11558         0.33816         2.27269
C           3.10721         0.64447         1.15444
C           3.68757        -0.75675         1.46757
C           4.97490        -0.54112         2.13526
C           6.11144        -1.26272         1.79516
C           7.27523        -1.03478         2.48744
C           7.27118        -0.08153         3.51401
C           6.07592         0.63729         3.86838
C           4.86561         0.37825         3.18360
C           3.28649         0.99657         3.30590
C           3.36010         2.52956         3.20897
C           4.00450         2.87211         1.87262
C           4.63658         4.06055         1.59399
C           5.02376         4.32972         0.26195
C           4.73027         3.42176        -0.76007
C           4.14665         2.21249        -0.48308
C           3.87278         1.89605         0.86177
H           1.57442        -0.23768         0.04110
H           0.58252         1.06181         0.66609
H           0.35110        -0.65233         1.16697
H           2.33961         1.44419         1.13433
H           3.65336        -1.48544         0.67006
H           3.21406        -1.34615         2.30388
H           6.03840        -2.01131         1.01380
H           8.16303        -1.60851         2.22652
H           8.21405         0.07363         4.04283
H           6.18228         1.35787         4.67773
H           2.97208         0.66072         4.30092
H           3.92738         2.97408         4.03433
H           2.33041         2.90677         3.27020
H           4.85288         4.78157         2.37453
H           5.53386         5.25182         0.03234
H           4.97788         3.66516        -1.79883
H           3.85101         1.52098        -1.26759

