%chk=CNqCrSqNrqdOrdO.chk
%NProcShared=20
# opt freq b3lyp/6-31g(2df,p)

Title Card Required 

0  1
C           1.01834         0.10058        -0.02728
N           2.47883         0.27828        -0.05922
C           3.02358         0.34091        -1.42471
S           3.12983         1.35093         1.06163
N           2.52597         2.76325         0.43582
O           2.49020         1.14998         2.33439
O           4.56079         1.39809         0.89207
H           0.72232        -0.73580        -0.66822
H           0.52368         1.00345        -0.39645
H           0.66596        -0.12427         0.98277
H           2.66043        -0.50348        -2.01882
H           4.11552         0.28921        -1.42112
H           2.70118         1.26446        -1.91389
H           1.52631         2.87988         0.55714
H           2.95306         3.05091        -0.43711

