%chk=COc1ccc2cqc1CCdOrOCqdOrNqCrC2.chk
%NProcShared=20
# opt freq b3lyp/6-31g(2df,p)

Title Card Required 

0  1
C           1.02105         0.16302         0.12676
O           2.44035         0.10150         0.28933
C           3.07385         1.30430         0.42778
C           2.68723         2.10524         1.50742
C           3.39280         3.25144         1.83509
C           4.49649         3.61947         1.07961
C           4.84676         2.85578        -0.04459
C           4.17680         1.64809        -0.38372
C           4.68012         0.82833        -1.56820
C           3.96958        -0.44679        -1.96605
O           4.31605        -1.15185        -2.91479
O           5.82807         3.39404        -0.92245
C           6.48017         4.59826        -0.58803
O           7.00128         5.31492        -1.44114
N           6.52742         4.84556         0.76208
C           7.73863         5.23875         1.45456
C           5.26291         4.85070         1.43651
H           0.69285        -0.83440        -0.18604
H           0.72984         0.86980        -0.65784
H           0.51779         0.38951         1.07022
H           1.85790         1.80707         2.13947
H           3.08192         3.84628         2.68797
H           5.72168         0.54055        -1.37238
H           4.65925         1.46659        -2.46046
H           3.09708        -0.77609        -1.40779
H           8.59729         5.23619         0.77695
H           7.92184         4.48982         2.23516
H           7.63312         6.21909         1.92604
H           4.69717         5.73305         1.11076
H           5.42339         4.90876         2.51868

