%chk=COCqdOrc1ccqOCrccqOCrc1.chk
%NProcShared=20
# opt freq b3lyp/6-31g(2df,p)

Title Card Required 

0  1
C           1.19408        -0.02425        -0.06509
O           2.63135        -0.02313        -0.06259
C           3.19196        -0.72174        -1.08469
O           2.57974        -1.32979        -1.95402
C           4.67813        -0.69667        -1.02256
C           5.43524        -0.66690        -2.20535
C           6.82246        -0.87273        -2.16447
O           7.46041        -0.98552        -3.37456
C           8.82709        -1.40722        -3.33211
C           7.45574        -0.99874        -0.92820
C           6.70989        -1.02654         0.25211
O           7.44453        -1.25567         1.38540
C           6.69603        -1.39122         2.58720
C           5.32227        -0.87698         0.20430
H           0.84139         0.60632         0.75804
H           0.80718        -1.03663         0.09476
H           0.80241         0.39099        -1.00006
H           4.93954        -0.51251        -3.16154
H           9.17081        -1.58590        -4.35585
H           8.95533        -2.34707        -2.77932
H           9.45326        -0.61728        -2.90480
H           8.53410        -1.10239        -0.85200
H           7.39136        -1.60174         3.40341
H           5.99368        -2.23016         2.52180
H           6.17551        -0.45649         2.81862
H           4.71881        -0.93598         1.10240

