%chk=COPqCrqdOrN1CCCC1.chk
%NProcShared=20
# opt freq b3lyp/6-31g(2df,p)

Title Card Required 

0  1
C           0.95368         0.24086        -0.15061
O           2.36957         0.08352        -0.02193
P           2.94623        -0.99525         1.20143
C           2.69055         0.32963         2.49727
O           1.69228        -1.86088         1.01594
N           3.53956        -2.10520         2.46015
C           4.62710        -2.93335         1.89614
C           3.89495        -4.10550         1.27649
C           2.85554        -4.42431         2.33476
C           2.61048        -3.09647         3.05448
H           0.74499         1.03266        -0.87156
H           0.50883         0.50917         0.81237
H           0.49254        -0.67799        -0.52756
H           2.33410         1.26601         2.06119
H           3.66374         0.53353         2.95675
H           1.98661        -0.01030         3.26013
H           5.29529        -3.26543         2.69512
H           5.22870        -2.38442         1.16090
H           4.55369        -4.95506         1.06409
H           3.41211        -3.81610         0.33786
H           3.25697        -5.15776         3.03915
H           1.94400        -4.84033         1.88807
H           2.83991        -3.20935         4.12112
H           1.55783        -2.79974         3.02355

