%chk=NCCCCNCCCCN.chk
%NProcShared=20
# opt freq b3lyp/6-31g(2df,p)

Title Card Required 

0  1
N           0.94349         0.04594        -0.08350
C           2.40054         0.05297        -0.09044
C           2.92636         0.01709         1.33983
C           4.45438         0.01836         1.36083
C           4.96362        -0.02031         2.79819
N           6.42466        -0.01947         2.80522
C           6.91827        -0.05785         4.17983
C           8.44366        -0.05826         4.18064
C           8.97275        -0.09905         5.61371
C          10.49691        -0.10254         5.63247
N          10.97588        -0.14675         7.00788
H           0.60194         0.10734        -1.04218
H           0.59760         0.87383         0.39814
H           2.75931         0.95196        -0.60350
H           2.76307        -0.81766        -0.64678
H           2.55446        -0.87947         1.85226
H           2.55362         0.88510         1.89866
H           4.82917         0.91605         0.85307
H           4.83249        -0.85018         0.80683
H           4.58785        -0.92435         3.29192
H           4.58218         0.85003         3.34590
H           6.77158         0.81670         2.33714
H           6.55505        -0.96213         4.68243
H           6.55151         0.81220         4.73791
H           8.82027         0.83939         3.67417
H           8.81751        -0.92672         3.62363
H           8.59081        -0.99542         6.11905
H           8.59255         0.76911         6.16728
H          10.88389         0.79591         5.13935
H          10.87811        -0.97352         5.08933
H          10.65844         0.68059         7.50963
H          11.99481        -0.11148         7.01086

