%chk=OdC1CdCCqdOrCqc2cccc3cccnc23rdC1.chk
%NProcShared=20
# opt freq b3lyp/6-31g(2df,p)

Title Card Required 

0  1
O          -2.64404         0.02715         0.00539
C          -1.42184         0.01289        -0.00383
C          -0.67537        -1.25701        -0.01153
C           0.65861        -1.27422        -0.00585
C           1.45303        -0.02986         0.02827
O           2.67290        -0.10370         0.12225
C           0.70119         1.26297         0.01643
C           1.43681         2.54477        -0.00464
C           1.26846         3.45255         1.05713
C           1.97550         4.64907         1.07595
C           2.85119         4.94513         0.03576
C           3.02403         4.04555        -1.03103
C           3.90485         4.32898        -2.08432
C           4.07251         3.41393        -3.11598
C           3.33637         2.24928        -3.07182
N           2.45182         1.96180        -2.09662
C           2.31021         2.82702        -1.06689
C          -0.64088         1.26366        -0.00055
H          -1.26231        -2.16665        -0.01625
H           1.22395        -2.19821        -0.00330
H           0.59670         3.22148         1.88126
H           1.85167         5.34396         1.90277
H           3.40375         5.88203         0.06256
H           4.46912         5.25776        -2.10266
H           4.75872         3.60352        -3.93259
H           3.43669         1.48733        -3.83899
H          -1.22773         2.17576        -0.02259

