%chk=OdC1CSCqdOrCS1.chk
%NProcShared=20
# opt freq b3lyp/6-31g(2df,p)

Title Card Required 

0  1
O           0.96756        -0.07147         0.06359
C           2.18857        -0.07868         0.14191
C           3.02279        -1.33661         0.17920
S           4.03260        -1.50816        -1.31542
C           4.95354        -0.01599        -1.14274
O           6.17085        -0.04175        -1.02301
C           4.13378         1.25056        -1.18859
S           3.09176         1.42912         0.28394
H           2.35316        -2.19929         0.24230
H           3.65327        -1.33634         1.07404
H           3.52413         1.26470        -2.09744
H           4.81639         2.10466        -1.23204

