%chk=OdC1CCCCCqdOrN1CCqOrCNC1CC1.chk
%NProcShared=20
# opt freq b3lyp/6-31g(2df,p)

Title Card Required 

0  1
O           0.99275         0.10008        -0.02480
C           2.22126         0.06626        -0.01302
C           2.99176        -1.22798         0.12352
C           3.90679        -1.19507         1.34425
C           5.13365        -0.31658         1.07284
C           4.89770         1.14984         1.43216
C           3.52781         1.67207         1.04156
O           2.94326         2.51484         1.71532
N           3.04849         1.15607        -0.13455
C           3.28568         1.83277        -1.40512
C           2.67117         1.12962        -2.62835
O           1.24017         1.12807        -2.56415
C           3.05325         1.84238        -3.92007
N           2.39722         1.18910        -5.05420
C           2.66399         1.84025        -6.32806
C           1.57501         2.62271        -7.00622
C           2.75445         3.34105        -6.42588
H           3.56914        -1.39548        -0.79527
H           2.27758        -2.05205         0.20617
H           4.23385        -2.21477         1.56835
H           3.35749        -0.83263         2.22352
H           5.42625        -0.39009         0.01721
H           5.98538        -0.69015         1.65135
H           5.66092         1.78383         0.96806
H           4.99162         1.25771         2.51912
H           4.37760         1.89059        -1.52579
H           2.93166         2.86734        -1.31935
H           3.00975         0.08812        -2.67397
H           0.93006         2.02753        -2.36230
H           4.13756         1.85474        -4.06534
H           2.69253         2.87159        -3.83184
H           1.39721         1.08617        -4.84988
H           3.32402         1.26414        -6.97364
H           0.62156         2.72288        -6.49963
H           1.49644         2.56657        -8.08437
H           2.56476         3.96440        -5.56126
H           3.52527         3.74123        -7.07146

