%chk=OdCqOC1CN2CCC1CC2rc1cccs1.chk
%NProcShared=20
# opt freq b3lyp/6-31g(2df,p)

Title Card Required 

0  1
O           0.96894        -0.05226         0.15391
C           2.20294        -0.13148         0.32575
O           2.99543         0.75177        -0.41249
C           4.44875         0.92506        -0.71503
C           5.29910         0.10764         0.21873
N           5.95077         0.87347         1.29614
C           7.05905         1.53538         0.61748
C           6.49591         2.42401        -0.51175
C           4.92986         2.39916        -0.52955
C           4.46507         2.86487         0.85088
C           5.06041         1.91395         1.89171
C           2.77586        -1.21100         1.14772
C           2.64194        -2.59072         1.03147
C           3.66536        -3.29990         1.75418
C           4.50618        -2.43090         2.41816
S           3.55950        -1.00085         2.71283
H           4.61966         0.63444        -1.76306
H           5.94402        -0.62155        -0.28422
H           4.64232        -0.54436         0.67917
H           7.72060         0.75972         0.20692
H           7.66273         2.08996         1.34175
H           6.87853         2.06288        -1.47197
H           6.85953         3.44469        -0.35646
H           4.53276         3.06335        -1.30463
H           3.36882         2.86163         0.91096
H           4.79050         3.89111         1.05151
H           4.23066         1.49243         2.46185
H           5.62185         2.48172         2.64407
H           1.92933        -3.05928         0.36942
H           3.82762        -4.36951         1.72879
H           5.46467        -2.63251         2.89313

