%chk=OdCqOrCSCSCCqdOrO.chk
%NProcShared=20
# opt freq b3lyp/6-31g(2df,p)

Title Card Required 

0  1
O           0.98388         0.06032        -0.10897
C           2.21086         0.06309        -0.08000
O           2.88341         0.17498         1.08830
C           3.06381        -0.05785        -1.34285
S           4.84694        -0.01996        -0.94723
C           5.66401        -0.17865        -2.60417
S           7.45156        -0.13939        -2.19422
C           8.34328        -0.29284        -3.79652
C           9.85796        -0.26584        -3.51450
O          10.37890        -0.15991        -2.40850
O          10.64306        -0.37108        -4.61344
H           3.85662         0.16148         0.94733
H           2.81193         0.78361        -1.99394
H           2.81193        -1.00759        -1.82239
H           5.39457         0.66661        -3.24309
H           5.39457        -1.12981        -3.07105
H           8.09190         0.54956        -4.44780
H           8.09190        -1.24355        -4.27608
H          10.20461        -0.45385        -5.47767

