%chk=OdS1Oc2ccccc2O1.chk
%NProcShared=20
# opt freq b3lyp/6-31g(2df,p)

Title Card Required 

0  1
O           1.20015         0.25917         0.22549
S           2.69381         0.16217         0.15064
O           3.32386         1.16047         1.27098
C           4.01318         0.40209         2.16840
C           4.76670         0.87968         3.22317
C           5.38336        -0.05567         4.06171
C           5.23170        -1.43475         3.83114
C           4.47474        -1.89370         2.75201
C           3.88387        -0.95443         1.93320
O           3.12570        -1.24188         0.84147
H           4.87909         1.94409         3.40274
H           5.98066         0.28193         4.90639
H           5.70523        -2.15013         4.50002
H           4.34698        -2.95399         2.56393

